/*--------------------------------*- C++ -*----------------------------------*\
  =========                 |
  \\      /  F ield         | OpenFOAM: The Open Source CFD Toolbox
   \\    /   O peration     | Website:  https://openfoam.org
    \\  /    A nd           | Version:  10
     \\/     M anipulation  |
\*---------------------------------------------------------------------------*/
FoamFile
{
    format      ascii;
    class       volScalarField;
    location    "0";
    object      epsilon;
}
// * * * * * * * * * * * * * * * * * * * * * * * * * * * * * * * * * * * * * //

dimensions      [0 2 -3 0 0 0 0];

internalField   uniform 3.45012e-10;

boundaryField
{
    inlet
    { 
        type            fixedValue;
        value           uniform 3.45012e-10;
    }
    outlet
    {
        type            zeroGradient;
    }
    wall
    {
        type            epsilonWallFunction;
        value       uniform 3.45012e-10;
    } 
    obstacle
    {
        type            epsilonWallFunction;
        value       uniform 3.45012e-10;
    }
    frontAndBack
    {
        type        empty;
    }
}


// ************************************************************************* //
